26
         -41.538688694903          0.000249068543
C           1.18257780853314    0.08273759669852    0.07380636574113
C           2.67731574604767    0.10517515313817   -0.00897202539662
C           3.37560828625747    1.30415415180986   -0.10899836976208
C           4.75083205092865    1.31697511697297   -0.20976790838201
C           5.46836203568869    0.11715699887306   -0.19162716320878
C           4.76860512341374   -1.09305792797572   -0.08763184667450
C           3.39542343016686   -1.09001969860557   -0.00309939601617
N           6.83464784932471    0.20511788324664   -0.34862757046833
N           7.50824769252600   -0.83217604642364   -0.04222867441115
C           8.84440730373315   -0.76600679697797   -0.28941313375477
C           9.61335361966996    0.19391649098308   -1.00191602952560
C          10.89231961749787   -0.29307079609289   -0.97086289576427
N           9.63654726529673   -1.75262210829441    0.14601403678061
N          10.84400651836606   -1.44992657345824   -0.26886980477090
N          11.91132566439072   -2.29504542356667   -0.03156319856369
H           0.78184188288828    1.08598387537471    0.19440929587041
H           0.85563687997672   -0.53023785698661    0.91242684892634
H           0.76306941864395   -0.34944376475321   -0.83490746855525
H           2.83033963842867    2.23756764637562   -0.11343326872312
H           5.29521289956719    2.24572031678139   -0.28661954119463
H           5.33288316232979   -2.01342043361646   -0.08893961047729
H           2.85921309235570   -2.02625983974779    0.06917124861341
H           9.24584775806769    1.08486568869818   -1.46529206140669
H          11.81420168107687    0.07345621938383   -1.37346225903208
H          11.53589549740442   -3.17644608395792    0.30998111633363
H          12.54216807741926   -1.90608378787880    0.66827331382243
