36
         -61.302469338974          0.000733614376
C          -1.13708926686388   -0.05187560854999   -0.24818052272526
C          -0.29949638128028    1.01870293531493   -0.07152593322214
C           0.93622014057096    0.44508262522901    0.27443415047175
N           0.85431406432710   -0.86492746736859    0.30507680919246
N          -0.40751330844602   -1.17273265415703   -0.01293483077716
C          -0.81435460757774   -2.50553662683452   -0.06080783352414
C           0.11316918505052   -3.50001179568151    0.25887350657754
C          -0.24561116724710   -4.82600789045128    0.21176862123437
C          -1.55204595290246   -5.19504423205555   -0.13289653782204
C          -2.47688194590685   -4.19172904393685   -0.45331773160402
C          -2.11226301772991   -2.86534329943406   -0.42429271231628
N          -1.82847942567199   -6.53781882744160   -0.23083552643927
N          -3.05363256421023   -6.88073378414582   -0.15731500223901
C          -3.32799855613910   -8.19825982463425   -0.36336647156029
C          -2.47406084205104   -9.28042364596062   -0.74856914389237
C          -3.25697962401739  -10.38496838469564   -0.84016983035139
C          -4.60407998102081   -8.72274054125763   -0.24165336172781
N          -4.55611130334991  -10.04661874422605   -0.52947790268888
C          -5.64447180216648  -10.89708937633497   -0.51239125630140
C          -6.96723954292593  -10.67101669913398   -0.21050730420096
N          -7.67028372794599  -11.82282416342392   -0.33665580153510
C          -6.81843867925153  -12.73335293893084   -0.70355370681667
N          -5.56249231858381  -12.22902142478985   -0.82824120312711
H          -4.73209297431938  -12.72872054164914   -1.09848776056102
H          -2.17264955529508   -0.07919403016038   -0.51568734789774
H          -0.53407151671551    2.05809152536787   -0.17337517573044
H           1.86303761977618    0.93505894822636    0.49714232327893
H           1.11079482636959   -3.19765899454283    0.53390339472853
H           0.46446115420647   -5.59960082620757    0.45880898268045
H          -3.47547942349183   -4.48668108378757   -0.73826158288124
H          -2.84053259996185   -2.11345681251982   -0.68557181396777
H          -1.42105488402840   -9.21036534717401   -0.92841312710147
H          -2.98448604362359  -11.38833912248912   -1.10436511929102
H          -5.51425364102461   -8.23190456068346    0.03288381617719
H          -7.44904643136782   -9.76316744749630    0.08647594280715
H          -7.05600590518415  -13.76052029398348   -0.89018300684640
