29
         -47.992927473631          0.000699125634
C          -1.11620616519833   -0.03517325113102   -0.25108096829820
C          -0.28016527832606    1.03587461497196   -0.06719642672326
C           0.95387516308203    0.46233103631832    0.28257787186724
N           0.87258860265528   -0.84807809512845    0.30982158795777
N          -0.38726335317275   -1.15578470160697   -0.01520203428119
C          -0.79494624294870   -2.48927268423095   -0.06423578861434
C           0.13099688912903   -3.48435344937011    0.25713360026279
C          -0.23037616541674   -4.80998690431275    0.21547176475264
C          -1.53812939567528   -5.17795671017527   -0.12422009426273
C          -2.45963899094793   -4.17421126259258   -0.45128023655084
C          -2.09253475557787   -2.84810298855296   -0.42820872796437
N          -1.82192431379731   -6.52070740259376   -0.21235927911356
N          -3.04374199595537   -6.85941570153089   -0.09774703771084
C          -3.33460116784027   -8.17704602380169   -0.28544280377281
C          -2.50568446908299   -9.27312652522144   -0.67936316389405
C          -3.30482196714500  -10.37156234380801   -0.72900376433732
C          -4.61508034611277   -8.68595693249945   -0.11625992756755
N          -4.57741559103346  -10.00525240798150   -0.38554409238824
H          -5.36537003521226  -10.63064857756371   -0.34128034826440
H          -2.15035609974032   -0.06245136328903   -0.52397099850420
H          -0.51530684737174    2.07540392532004   -0.16714676121835
H           1.87932553390240    0.95221611925084    0.51141591979970
H           1.12938642319625   -3.18314033508245    0.53050099690907
H           0.47846385599374   -5.58389085219671    0.46520147746387
H          -3.45897709812377   -4.46827876025646   -0.73485440795648
H          -2.81964029132585   -2.09614627206770   -0.69275091468191
H          -1.45811050602701   -9.21500682346378   -0.89144962800215
H          -3.07423672870883  -11.38797789285676   -0.98183143608679
H          -5.51227866321836   -8.18023743454681    0.17799562118046
