30
         -51.228649154563          0.000680714450
N           1.08435284540432    0.26178768738627    0.28617259890980
C           2.43391889772360    0.15945127491349    0.07415649764417
C           3.31096671422155    1.11587421600685    0.59936745839017
C           4.66745878853779    0.98608148228919    0.42997416063843
C           5.19950021112214   -0.10787080211892   -0.26605228185408
C           4.31851379386374   -1.07025402870337   -0.78702349534014
C           2.96369362016776   -0.93553610260135   -0.62141815206490
N           6.56362990811632   -0.13474728204247   -0.40290203016886
N           7.06604046525722   -1.16025064485008   -0.97994070620423
C           8.42326993784103   -1.13362349953467   -1.13335997532330
C           9.38545557224482   -0.12419216224874   -0.84009718425503
N          10.58900419808887   -0.51216993348263   -1.17492004334681
C           9.17353080927009   -2.16637144945081   -1.67668607910075
N          10.45900734467395   -1.75308871467097   -1.67939924405013
C          11.56851165625550   -2.43439361338136   -2.12902184813717
C          12.85733083015994   -1.98459965703798   -2.13329638707659
C          13.75051139715379   -2.93610430958526   -2.66819070018120
C          13.13602783502658   -4.08090621220862   -3.05737126200869
S          11.43601360432229   -4.03566267451434   -2.78325480824159
H           0.72249869012131    1.15333660953941    0.57832780223872
H           0.47513620653968   -0.29758572905841   -0.28635088779981
H           2.90549905264163    1.96038458366858    1.13835843519435
H           5.34865459365114    1.72171966458106    0.82853001277651
H           4.73439142041557   -1.90789680135907   -1.32563807829558
H           2.28696710028908   -1.67427216715591   -1.02836803078302
H           9.21322436785538    0.84191177164230   -0.41153808509419
H           8.88099297023227   -3.13003007575218   -2.04001691696772
H          13.13149053013645   -1.01401625622171   -1.76633641137865
H          14.80884229869261   -2.77110038402638   -2.75845273470143
H          13.56826433997350   -4.95929479002234   -3.49216162341886
