28
         -45.365651642438          0.000924599125
C           1.59873062567681    0.37775096292726   -0.94492622459724
O           2.51917020793533    0.07534901910045    0.07543983349890
C           3.07273982384489    1.09475870562018    0.78169107499187
C           2.79329844065079    2.44593886786606    0.58698762202074
C           3.41681635059488    3.39690095689548    1.36824637326545
C           4.33373215510293    3.02865198433599    2.35515934520156
C           4.61002704793881    1.66489150861697    2.54620216788445
C           3.98818991758504    0.71836488344866    1.77300765077272
N           4.89503275652979    4.05703402143028    3.07956372721362
N           5.77378763108747    3.72904465998685    3.94565907355246
C           6.31268860200474    4.76183210106872    4.65820550079916
C           6.06819316274178    6.16111258397995    4.63270476605781
N           6.82894395680843    6.77871322172453    5.50502265841077
C           7.29569035545458    4.61199055736954    5.63379966541969
N           7.56528754404675    5.83733290460361    6.10410111371941
C           8.51785965910693    6.20365770867720    7.11125401165200
H           1.30176623575423   -0.58104965938058   -1.36734632368239
H           2.05464250888122    0.99206324393630   -1.72803415246268
H           0.71422487706985    0.88821227818176   -0.55063351682332
H           2.09204686216554    2.76362257167507   -0.16887991580685
H           3.20721661432390    4.44575188929704    1.22516694679679
H           5.31676389702299    1.38429011648565    3.31204941276610
H           4.18669160243913   -0.33398598115269    1.90644026260168
H           5.37575505505196    6.69819263164168    4.01772147822588
H           7.78821374341102    3.73251207865630    5.99482714575046
H           8.38246240952661    5.59280263662946    8.00535064932783
H           8.35391694463500    7.25220001231405    7.35483471408175
H           9.53931101260806    6.07618353406114    6.74352493936024
