32
         -55.506154318121          0.000940036743
C           1.72845708904573    0.11847317594029    0.60296579213277
O           2.69789191309787    0.39513776096514   -0.37982671936493
C           2.96951551096457   -0.54641037967602   -1.31760781051814
C           3.95384903947097   -0.20450029393072   -2.25276179600467
C           4.30806018972214   -1.08335308222768   -3.24572557951649
C           3.69818205999507   -2.34281610839691   -3.32875870177905
C           2.70947046156366   -2.67698449106316   -2.39494470111093
C           2.34512585231091   -1.79136451240199   -1.40490336861616
N           4.10700455499294   -3.15591513166832   -4.36003579321698
N           3.67982284456256   -4.35889477409024   -4.34302001008064
C           4.07138057607561   -5.13673531124984   -5.39521227876505
C           4.81350384228819   -4.83061435966046   -6.57011289831407
N           4.94692030321135   -5.89182072824647   -7.32624090575016
C           3.77263148023105   -6.48851821087234   -5.52153919388045
N           4.31685999035241   -6.89535462928298   -6.68446579314068
C           4.29494060276476   -8.15332255281254   -7.25042261492941
C           3.76020669563430   -9.35774632566878   -6.86061072313831
N           4.03040348775822  -10.29315476692251   -7.80359395639563
C           4.70681093626853   -9.68924065288335   -8.74007648552545
N           4.89880087087339   -8.37878295820520   -8.45613905203395
H           5.37946401724751   -7.66407462498374   -8.97988962438951
H           1.69870568215489    0.99907364254051    1.24256324468929
H           2.00224697334337   -0.75505946317403    1.20333916610972
H           0.74015771694727   -0.03931779285205    0.15913347454041
H           4.41942069250561    0.76488612064413   -2.16850611019339
H           5.06678466770353   -0.82788666400196   -3.96884744900858
H           2.23340470392501   -3.64277083368415   -2.47378231695245
H           1.57478290512189   -2.07396118074235   -0.70379616335061
H           5.22815159154046   -3.88653303374068   -6.85904774382778
H           3.23446237348485   -7.14970680896202   -4.87550391772353
H           3.20885255181111   -9.60448671282617   -5.97697930729244
H           5.07127782302796  -10.15891431586333   -9.63060066265094
