27
         -45.601774383530          0.000926079151
C           1.57188307356972   -0.52916375016080    0.75271883878230
O           2.17118631655085    0.18851888103858   -0.29848025250440
C           2.73250758418416   -0.49953160910620   -1.32618479660939
C           3.32633541628155    0.28001475451442   -2.32539535179987
C           3.91826129146315   -0.31248102690785   -3.41321933176963
C           3.94743748673576   -1.70831152545725   -3.53295233985328
C           3.35070893065591   -2.48290874931664   -2.53105711262456
C           2.74758136903666   -1.88933636195744   -1.44356809469180
N           4.53976831248487   -2.21519766646806   -4.66771252421022
N           4.70548309038514   -3.48011596329305   -4.70846024241661
C           5.25163137494968   -3.96855162515393   -5.86100658489971
C           5.60184945143976   -3.33720868499716   -7.08216207703084
N           6.07276217519802   -4.21488288016540   -7.93872180706222
C           5.57189532023257   -5.31038199784253   -6.06499571906364
N           6.05557936285799   -5.39257657597125   -7.30974893572425
N           6.52141868173911   -6.53731163310534   -7.93071107743290
H           1.21649506827008    0.22194863189415    1.45667195852407
H           2.29192940961269   -1.18297589776780    1.25482532618441
H           0.72318029490331   -1.12441134713189    0.40099995838637
H           3.30117244993571    1.35276959489424   -2.21565252714817
H           4.37806209664308    0.28194474567055   -4.18724557164354
H           3.36607292393971   -3.55756026956230   -2.63355377153050
H           2.28929202395061   -2.51314691926111   -0.69125115289866
H           5.51708657589224   -2.30176626709309   -7.33984284006915
H           5.48715800654946   -6.16164854837645   -5.42347776263042
H           5.75452505449145   -7.06778451066569   -8.34258718383204
H           7.15316685804643   -6.25277279825097   -8.67590902443223
